Circuit: * D:\clg stuff\4th sem\DVLSI\project\cmos_nandtb.asc

Direct Newton iteration for .op point succeeded.
Changing Tseed to 5e-010
Changing Tseed to 5e-012
Changing Tseed to 5e-009
Changing Tseed to 5e-013

Date: Tue Apr 18 22:22:26 2023
Total elapsed time: 0.125 seconds.

tnom = 27
temp = 27
method = modified trap
totiter = 4049
traniter = 4044
tranpoints = 1568
accept = 1481
rejected = 83
matrix size = 8
fillins = 0
solver = Normal
Matrix Compiler1: 336 bytes object code size  0.1/0.1/[0.0]
Matrix Compiler2: off  [0.1]/0.1/0.1

