Circuit: * D:\clg stuff\4th sem\DVLSI\project\halfaddertb.asc

Direct Newton iteration for .op point succeeded.
Changing Tseed to 5e-010
Changing Tseed to 5e-012
Changing Tseed to 5e-009
Changing Tseed to 5e-013

Date: Tue Apr 18 22:33:37 2023
Total elapsed time: 0.244 seconds.

tnom = 27
temp = 27
method = modified trap
totiter = 8184
traniter = 8155
tranpoints = 1697
accept = 1568
rejected = 125
matrix size = 16
fillins = 2
solver = Normal
Thread vector: 12.0/8.9[2] 8.1/4.5[2] 2.0/1.3[2] 0.3/1.3[1]  2592/500
Matrix Compiler1: 1.39 KB object code size  1.0/0.6/[0.3]
Matrix Compiler2: 1.70 KB object code size  0.5/0.7/[0.5]

