Circuit: * D:\clg stuff\4th sem\DVLSI\project\cmos_nortb.asc

Direct Newton iteration for .op point succeeded.

Date: Tue Apr 18 22:30:31 2023
Total elapsed time: 0.101 seconds.

tnom = 27
temp = 27
method = modified trap
totiter = 3306
traniter = 3295
tranpoints = 1544
accept = 1464
rejected = 80
matrix size = 8
fillins = 0
solver = Normal
Matrix Compiler1: 372 bytes object code size  0.1/0.1/[0.0]
Matrix Compiler2: 652 bytes object code size  0.1/0.1/[0.1]

