Circuit: * D:\clg stuff\4th sem\DVLSI\project\tb0111x1101.asc

Early termination of direct N-R iteration.
Direct Newton iteration failed to find .op point.  (Use ".option noopiter" to skip.)
Starting Gmin stepping
Gmin = 10
Gmin = 1.07374
Gmin = 0.115292
Gmin = 0.0123794
Gmin = 0.00132923
Gmin = 0.000142725
Gmin = 1.5325e-005
Gmin = 1.6455e-006
Gmin = 1.76685e-007
Gmin = 1.89714e-008
Gmin = 2.03704e-009
Gmin = 2.18725e-010
Gmin = 2.34854e-011
Gmin = 2.52173e-012
Gmin = 2.70769e-013
Gmin = 0
Gmin stepping succeeded in finding the operating point.


Date: Thu Apr 20 12:20:00 2023
Total elapsed time: 0.793 seconds.

tnom = 27
temp = 27
method = modified trap
totiter = 2501
traniter = 2082
tranpoints = 1042
accept = 1042
rejected = 0
matrix size = 290
fillins = 426
solver = Normal
Thread vector: 122.6/66.0[4] 136.5/40.4[4] 27.5/19.7[4] 3.1/3.6[1]  2592/500
Matrix Compiler1: 67.10 KB object code size  22.6/20.6/[7.5]
Matrix Compiler2: 43.82 KB object code size  15.4/12.2/[7.5]

