Circuit: * D:\clg stuff\4th sem\DVLSI\project\tb1110x0111.asc

Early termination of direct N-R iteration.
Direct Newton iteration failed to find .op point.  (Use ".option noopiter" to skip.)
Starting Gmin stepping
Gmin = 10
Gmin = 1.07374
Gmin = 0.115292
Gmin = 0.0123794
Gmin = 0.00132923
Gmin = 0.000142725
Gmin = 1.5325e-005
Gmin = 1.6455e-006
Gmin = 1.76685e-007
Gmin = 1.89714e-008
Gmin = 2.03704e-009
Gmin = 2.18725e-010
Gmin = 2.34854e-011
Gmin = 2.52173e-012
Gmin = 2.70769e-013
Gmin = 0
Gmin stepping succeeded in finding the operating point.


Date: Mon Apr 24 08:40:52 2023
Total elapsed time: 1.022 seconds.

tnom = 27
temp = 27
method = modified trap
totiter = 2495
traniter = 2082
tranpoints = 1042
accept = 1042
rejected = 0
matrix size = 290
fillins = 426
solver = Normal
Thread vector: 188.4/86.0[4] 146.4/65.6[4] 39.9/17.3[4] 4.9/3.9[3]  2592/500
Matrix Compiler1: 67.10 KB object code size  43.2/26.7/[9.8]
Matrix Compiler2: 43.82 KB object code size  23.4/20.2/[11.6]

