Circuit: * D:\clg stuff\4th sem\DVLSI\project\tb1101x1011.asc

Early termination of direct N-R iteration.
Direct Newton iteration failed to find .op point.  (Use ".option noopiter" to skip.)
Starting Gmin stepping
Gmin = 10
Gmin = 1.07374
Gmin = 0.115292
Gmin = 0.0123794
Gmin = 0.00132923
Gmin = 0.000142725
Gmin = 1.5325e-005
Gmin = 1.6455e-006
Gmin = 1.76685e-007
Gmin = 1.89714e-008
Gmin = 2.03704e-009
Gmin = 2.18725e-010
Gmin = 2.34854e-011
Gmin = 2.52173e-012
Gmin = 2.70769e-013
Gmin = 0
Gmin stepping succeeded in finding the operating point.


Date: Fri Apr 21 12:01:25 2023
Total elapsed time: 0.920 seconds.

tnom = 27
temp = 27
method = modified trap
totiter = 2497
traniter = 2082
tranpoints = 1042
accept = 1042
rejected = 0
matrix size = 290
fillins = 426
solver = Normal
Thread vector: 206.5/78.2[4] 99.0/30.3[4] 38.1/29.1[4] 4.9/4.1[3]  2592/500
Matrix Compiler1: 67.10 KB object code size  20.6/13.0/[5.9]
Matrix Compiler2: 43.82 KB object code size  21.8/19.5/[7.1]

