Circuit: * D:\clg stuff\4th sem\DVLSI\project\inverterouput.asc

Direct Newton iteration for .op point succeeded.

Date: Tue Apr 18 22:37:37 2023
Total elapsed time: 0.180 seconds.

tnom = 27
temp = 27
method = modified trap
totiter = 2880
traniter = 2870
tranpoints = 1357
accept = 1337
rejected = 20
matrix size = 5
fillins = 0
solver = Normal
Matrix Compiler1: 132 bytes object code size  0.1/0.1/[0.1]
Matrix Compiler2: 335 bytes object code size  0.1/0.1/[0.1]

